6
3 3
H        0.03540965       4.35416408      -0.93170461
H        0.00000000       3.15847600       0.00000000
C        0.00000000       0.08825600       0.00000000
O        0.00000000       1.25847600       0.00000000
O        0.00000000      -1.08196400       0.00000000
O        0.00000000       4.11984600       0.00000000
