6
H4O2
O        0.000000000     -3.672794000      0.000000000
O        0.000000000      2.227206000      0.000000000
H        0.029703868      2.781377461     -0.785012070
H        0.013651768      2.853273520      0.729441819
H        0.017607753     -4.259535840     -0.761351599
H       -0.013377840     -4.268366698      0.754550510
