6
C2O4
C        0.000000000      0.056986000      0.000000000
O        0.000000000      1.227206000      0.000000000
O        0.000000000      5.027206000      0.000000000
C        0.000000000      6.197426000      0.000000000
O        0.000000000      7.367646000      0.000000000
O        0.000000000     -1.113234000      0.000000000
