6
C2O4
C        0.000000000      0.056986000      0.000000000
O        0.000000000      1.227206000      0.000000000
O        0.000000000      2.627206000      0.000000000
C        0.000000000      3.797426000      0.000000000
O        0.000000000      4.967646000      0.000000000
O        0.000000000     -1.113234000      0.000000000
