6

H -0.8915159870000000 -1.4558395110000000 0.5147169950000000
H 0.8915159870000000 -1.4558395110000000 0.5147169950000000
H 0.0000000000000000 0.0000000000000000 0.0000000000000000
H 0.0000000000000000 -1.4558395110000000 -1.0294339900000000
H -0.3900959260000000 1.7617231990000000 -0.6756659630000000
H 0.4007516660000000 1.8191001640000000 0.6167214650000000
C 0.0000000000000000 -1.0918796330000000 0.0000000000000000
O 0.0000000000000000 1.2000000000000000 0.0000000000000000
